36
Lattice="7.726100233167917 0.0 0.0 3.8630501165839584 6.69099907410829 0.0 0.0 0.0 21.308334424286514" Properties=species:S:1:pos:R:3:tags:I:1 pbc="T T T"
Cu       0.00000000       0.00000000      -6.35041738        4
Cu       2.57536674       0.00000000      -6.35041738        4
Cu       5.15073349       0.00000000      -6.35041738        4
Cu       1.28768337       2.23033302      -6.35041738        4
Cu       3.86305012       2.23033302      -6.35041738        4
Cu       6.43841686       2.23033302      -6.35041738        4
Cu       2.57536674       4.46066605      -6.35041738        4
Cu       5.15073349       4.46066605      -6.35041738        4
Cu       7.72610023       4.46066605      -6.35041738        4
Cu       1.28768337       0.74344434      -4.24763923        3
Cu       3.86305012       0.74344434      -4.24763923        3
Cu       6.43841686       0.74344434      -4.24763923        3
Cu       2.57536674       2.97377737      -4.24763923        3
Cu       5.15073349       2.97377737      -4.24763923        3
Cu       7.72610023       2.97377737      -4.24763923        3
Cu       3.86305012       5.20411039      -4.24763923        3
Cu       6.43841686       5.20411039      -4.24763923        3
Cu       9.01378361       5.20411039      -4.24763923        3
Cu      -0.00000000       1.48688868      -2.14486109        2
Cu       2.57536674       1.48688868      -2.14486109        2
Cu       5.15073349       1.48688868      -2.14486109        2
Cu       1.28768337       3.71722171      -2.14486109        2
Cu       3.86305012       3.71722171      -2.14486109        2
Cu       6.43841686       3.71722171      -2.14486109        2
Cu       2.57536674       5.94755473      -2.14486109        2
Cu       5.15073349       5.94755473      -2.14486109        2
Cu       7.72610023       5.94755473      -2.14486109        2
Cu       0.00000000       0.00000000      -0.04208295        1
Cu       2.57536674       0.00000000      -0.04208295        1
Cu       5.15073349       0.00000000      -0.04208295        1
Cu       1.28768337       2.23033302      -0.04208295        1
Cu       3.86305012       2.23033302      -0.04208295        1
Cu       6.43841686       2.23033302      -0.04208295        1
Cu       2.57536674       4.46066605      -0.04208295        1
Cu       5.15073349       4.46066605      -0.04208295        1
Cu       7.72610023       4.46066605      -0.04208295        1
